power-flow-agent/results/ieee14/2026-09-16/gpt-4o-mini/pfagent__stress/traces/37_case14-stress-036-s0.transcript.txt
==============================================================================
TRANSCRIPT  pfagent  |  openrouter:openai/gpt-4o-mini  |  case14  |  case14-stress-036-s0  run 0
==============================================================================
date: 2026-09-16   seed: 0   difficulty: stress   tool variant: None

[system]   (hash 7da5e2a37ec4, from methods/pfagent/method.json prompt_files)
You are a power system power-flow analysis assistant. You help the user complete power system analysis tasks from natural-language requests.

## What you can do
You complete tasks by calling tool functions:
1. Load an IEEE standard test system (14, 30, 57, 118, 300 buses)
2. Run AC power flow
3. Modify the load at a bus and re-solve
4. Disconnect or reconnect a line and re-solve
5. Query the network status
6. Run an N-1 contingency analysis (disconnect branches one at a time and rank the worst cases)
7. Generate remedial-action suggestions (what-if load shedding or voltage adjustment) to reduce violation risk

## Key rules
- Never fabricate any numerical result. Every voltage, power, loss, or loading value must come from a tool return value.
- If a tool reports an error or a non-converged power flow, say so explicitly and do not report numbers for that state.
- If the request is ambiguous, state the interpretation you are using.
- Bus and line identifiers in the request are MATPOWER 1-based ids; pass them to the tools as given, unless the request itself states a different indexing convention for that identifier (e.g. "(0-based)"), in which case convert it to the MATPOWER 1-based id before calling any tool.
- After a network modification, re-solve before reporting any value.
- Always reply in English.

## Reply format
After each analysis, reply in this structure:
1. One-sentence summary
2. Key numbers (total load, total generation, total losses, voltage range) taken from the tool outputs
3. Violations, if any
4. Suggested next step

[user]
Load case14, set the active load at bus 4 to 33.5 MW, increase the load at bus 9 to 177 MW and 99.6 Mvar (six times its nominal value), increase the load at bus 3 to 565.2 MW and 114 Mvar (six times its nominal value), increase the load at bus 2 to 130.2 MW and 76.2 Mvar (six times its nominal value), increase the load at bus 14 to 89.4 MW and 30 Mvar (six times its nominal value), and finally rerun the power flow, then list every line whose loading is above 90%.

--- round 1 ---
[assistant]   (878 in / 173 out tokens, 1.7 s)
(no text)
tool_call  load_case(case_name="case14")
tool_call  modify_load(bus_id=4, p_mw=33.5)
tool_call  modify_load(bus_id=9, p_mw=177, q_mvar=99.6)
tool_call  modify_load(bus_id=3, p_mw=565.2, q_mvar=114)
tool_call  modify_load(bus_id=2, p_mw=130.2, q_mvar=76.2)
tool_call  modify_load(bus_id=14, p_mw=89.4, q_mvar=30)
[tool load_case]   (gate: not applied)
{"case_name": "case14", "n_buses": 14, "n_generators": 5, "n_lines": 20, "n_loads": 11, "total_load_mw": 258.53382777664655, "total_gen_capacity_mw": 772.4000000000001}
[tool modify_load]   (gate: pass)
{"case_name": "case14", "converged": true, "bus_voltages": [{"bus_id": 1, "vm_pu": 1.06, "va_deg": 0.0, "is_violation": true, "violation_type": "overvoltage"}, {"bus_id": 2, "vm_pu": 1.045, "va_deg": -4.5042736182572565, "is_violation": false, "violation_type": null}, {"bus_id": 3, "vm_pu": 1.0100000000000002, "va_deg": -11.594799854548901, "is_violation": false, "violation_type": null}, {"bus_id": 4, "vm_pu": 1.0194631969650845, "va_deg": -9.346483821504538, "is_violation": false, "violation_type": null}, {"bus_id": 5, "vm_pu": 1.020929169131491, "va_deg": -8.014089605665506, "is_violation": false, "violation_type": null}, {"bus_id": 6, "vm_pu": 1.0699999999999998, "va_deg": -13.460481927420835, "is_violation": true, "violation_type": "overvoltage"}, {"bus_id": 7, "vm_pu": 1.0612422874511147, "va_deg": -12.568382155515557, "is_violation": true, "violation_type": "overvoltage"}, {"bus_id": 8, "vm_pu": 1.0900000000000003, "va_deg": -12.568382155515557, "is_violation": true, "violation_type": "overvoltage"}, {"bus_id": 9, "vm_pu": 1.0545139894454345, "va_deg": -14.243177404459908, "is_violation": true, "violation_type": "overvoltage"}, {"bus_id": 10, "vm_pu": 1.0492638212109713, "va_deg": -14.41160760381212, "is_violation": false, "violation_type": null}, {"bus_id": 11, "vm_pu": 1.0557484903346128, "va_deg": -14.077897838490236, "is_violation": true, "violation_type": "overvoltage"}, {"bus_id": 12, "vm_pu": 1.0556507629004235, "va_deg": -14.295544210551258, "is_violation": true, "violation_type": "overvoltage"}, {"bus_id": 13, "vm_pu": 1.0498828338460373, "va_deg": -14.410727524433307, "is_violation": false, "violation_type": null}, {"bus_id": 14, "vm_pu": 1.0337367290100885, "va_deg": -15.35982742780343, "is_violation": false, "violation_type": null}], "line_flows": [{"line_id": 0, "from_bus": 1, "to_bus": 2, "p_from_mw": 142.43478991165506, "q_from_mvar": -16.964457369294145, "loading_percent": 1.3668905466490502, "is_violation": false}, {"line_id": 1, "from_bus": 1, "to_bus": 5, "p_from_mw": 69.22814355704978, "q_from_mvar": 3.772858079130055, "loading_percent": 0.6619527526825099, "is_violation": false}, {"line_id": 2, "from_bus": 2, "to_bus": 3, "p_from_mw": 67.36655474050104, "q_from_mvar": 4.170649344893004, "loading_percent": 0.6540359065744578, "is_violation": false}, {"line_id": 3, "from_bus": 2, "to_bus": 4, "p_from_mw": 51.145787036869216, "q_from_mvar": -1.4212120574214615, "loading_percent": 0.4945679684002554, "is_violation": false}, {"line_id": 4, "from_bus": 2, "to_bus": 5, "p_from_mw": 38.54274586069561, "q_from_mvar": 1.1042565322590236, "loading_percent": 0.3743927342218094, "is_violation": false}, {"line_id": 5, "from_bus": 3, "to_bus": 4, "p_from_mw": -22.21569262862243, "q_from_mvar": 2.926360646583688, "loading_percent": 0.22593122714194247, "is_violation": false}, {"line_id": 6, "from_bus": 4, "to_bus": 5, "p_from_mw": -53.05271401363908, "q_from_mvar": 13.938355585924315, "loading_percent": 0.5434941037697619, "is_violation": false}, {"line_id": 7, "from_bus": 6, "to_bus": 11, "p_from_mw": 7.977709142698791, "q_from_mvar": 3.8901330310238817, "loading_percent": 0.08378778053297763, "is_violation": false}, {"line_id": 8, "from_bus": 6, "to_bus": 12, "p_from_mw": 7.589528240682447, "q_from_mvar": 2.402314497704443, "loading_percent": 0.0751501616401441, "is_violation": false}, {"line_id": 9, "from_bus": 6, "to_bus": 13, "p_from_mw": 18.08799815632323, "q_from_mvar": 7.457320051111954, "loading_percent": 0.1846969772108758, "is_violation": false}, {"line_id": 10, "from_bus": 9, "to_bus": 10, "p_from_mw": 5.5336588775770394, "q_from_mvar": 4.474437597938764, "loading_percent": 0.06816599304253393, "is_violation": false}, {"line_id": 11, "from_bus": 9, "to_bus": 14, "p_from_mw": 9.584273278220913, "q_from_mvar": 3.6742213591595068, "loading_percent": 0.09832107640875279, "is_violation": false}, {"line_id": 12, "from_bus": 10, "to_bus": 11, "p_from_mw": -4.11698840174913, "q_from_mvar": -1.7740149931156954, "loading_percent": 0.043156153266882755, "is_violation": false}, {"line_id": 13, "from_bus": 12, "to_bus": 13, "p_from_mw": 2.0178587272961006, "q_from_mvar": 0.8171426742353943, "loading_percent": 0.020830980069932947, "is_violation": false}, {"line_id": 14, "from_bus": 13, "to_bus": 14, "p_from_mw": 6.105945939902527, "q_from_mvar": 1.9146954503065343, "loading_percent": 0.061566389071767876, "is_violation": false}, {"line_id": 100000, "from_bus": 4, "to_bus": 7, "p_from_mw": 29.73116779975445, "q_from_mvar": -8.558161462383486, "loading_percent": 0.30654276771390404, "is_violation": false}, {"line_id": 100001, "from_bus": 4, "to_bus": 9, "p_from_mw": 17.0269256307402, "q_from_mvar": 0.2671626594428686, "loading_percent": 0.16872636346189102, "is_violation": false}, {"line_id": 100002, "from_bus": 5, "to_bus": 6, "p_from_mw": 44.142865403061634, "q_from_mvar": 13.14750735417451, "loading_percent": 0.4557068363354938, "is_violation": false}, {"line_id": 100003, "from_bus": 7, "to_bus": 8, "p_from_mw": -1.3764648520567647e-14, "q_from_mvar": -17.32551839184843, "loading_percent": 0.16490601472508581, "is_violation": false}, {"line_id": 100004, "from_bus": 7, "to_bus": 9, "p_from_mw": 29.7311677994755, "q_from_mvar": 6.925203421507908, "loading_percent": 0.290559511205691, "is_violation": false}], "total_generation_mw": 250.94941044598096, "total_load_mw": 239.65196303500412, "total_loss_mw": 11.29744741492587, "voltage_violations": [{"bus_id": 1, "vm_pu": 1.06, "va_deg": 0.0, "is_violation": true, "violation_type": "overvoltage"}, {"bus_id": 6, "vm_pu": 1.0699999999999998, "va_deg": -13.460481927420835, "is_violation": true, "violation_type": "overvoltage"}, {"bus_id": 7, "vm_pu": 1.0612422874511147, "va_deg": -12.568382155515557, "is_violation": true, "violation_type": "overvoltage"}, {"bus_id": 8, "vm_pu": 1.0900000000000003, "va_deg": -12.568382155515557, "is_violation": true, "violation_type": "overvoltage"}, {"bus_id": 9, "vm_pu": 1.0545139894454345, "va_deg": -14.243177404459908, "is_violation": true, "violation_type": "overvoltage"}, {"bus_id": 11, "vm_pu": 1.0557484903346128, "va_deg": -14.077897838490236, "is_violation": true, "violation_type": "overvoltage"}, {"bus_id": 12, "vm_pu": 1.0556507629004235, "va_deg": -14.295544210551258, "is_violation": true, "violation_type": "overvoltage"}], "thermal_violations": [], "summary_text": "", "solver_backend": "pandapower", "llm_prompt": null, "llm_response": null}
[tool modify_load]   (gate: pass)
{"case_name": "case14", "converged": true, "bus_voltages": [{"bus_id": 1, "vm_pu": 1.06, "va_deg": 0.0, "is_violation": true, "violation_type": "overvoltage"}, {"bus_id": 2, "vm_pu": 1.0449999999999997, "va_deg": -8.364574383951046, "is_violation": false, "violation_type": null}, {"bus_id": 3, "vm_pu": 1.0099999999999998, "va_deg": -18.284796115734398, "is_violation": false, "violation_type": null}, {"bus_id": 4, "vm_pu": 0.9594293294903212, "va_deg": -17.279860995765148, "is_violation": false, "violation_type": null}, {"bus_id": 5, "vm_pu": 0.9730853085279182, "va_deg": -15.165704008968756, "is_violation": false, "violation_type": null}, {"bus_id": 6, "vm_pu": 1.0699999999999998, "va_deg": -28.412124826618438, "is_violation": true, "violation_type": "overvoltage"}, {"bus_id": 7, "vm_pu": 0.9587595117717437, "va_deg": -29.026945512550732, "is_violation": false, "violation_type": null}, {"bus_id": 8, "vm_pu": 1.09, "va_deg": -29.02694551255074, "is_violation": true, "violation_type": "overvoltage"}, {"bus_id": 9, "vm_pu": 0.8821785547841353, "va_deg": -35.867157455943406, "is_violation": true, "violation_type": "undervoltage"}, {"bus_id": 10, "vm_pu": 0.9033828637917449, "va_deg": -34.669198220209516, "is_violation": true, "violation_type": "undervoltage"}, {"bus_id": 11, "vm_pu": 0.9782157436099329, "va_deg": -31.427877255212515, "is_violation": false, "violation_type": null}, {"bus_id": 12, "vm_pu": 1.0432753796739243, "va_deg": -29.769845960112384, "is_violation": false, "violation_type": null}, {"bus_id": 13, "vm_pu": 1.0219791107741736, "va_deg": -30.143985198989903, "is_violation": false, "violation_type": null}, {"bus_id": 14, "vm_pu": 0.920309520320611, "va_deg": -34.44200855868807, "is_violation": true, "violation_type": "undervoltage"}], "line_flows": [{"line_id": 0, "from_bus": 1, "to_bus": 2, "p_from_mw": 259.78643843572735, "q_from_mvar": -41.26851024712975, "loading_percent": 2.506612172509978, "is_violation": false}, {"line_id": 1, "from_bus": 1, "to_bus": 5, "p_from_mw": 127.41556892870072, "q_from_mvar": 23.782613265905404, "loading_percent": 1.2390507905070327, "is_violation": false}, {"line_id": 2, "from_bus": 2, "to_bus": 3, "p_from_mw": 92.8908330829896, "q_from_mvar": 2.006135925544145, "loading_percent": 0.8980957278095382, "is_violation": false}, {"line_id": 3, "from_bus": 2, "to_bus": 4, "p_from_mw": 96.6076122327559, "q_from_mvar": 23.889683550489927, "loading_percent": 0.9682682030820317, "is_violation": false}, {"line_id": 4, "from_bus": 2, "to_bus": 5, "p_from_mw": 76.54770176838016, "q_from_mvar": 20.374716338006984, "loading_percent": 0.773537667780303, "is_violation": false}, {"line_id": 5, "from_bus": 3, "to_bus": 4, "p_from_mw": 1.5586650662292802, "q_from_mvar": 28.68758096365403, "loading_percent": 0.30004608784196063, "is_violation": false}, {"line_id": 6, "from_bus": 4, "to_bus": 5, "p_from_mw": -82.84769004656829, "q_from_mvar": -3.3395457301614933, "loading_percent": 0.8729407445717583, "is_violation": false}, {"line_id": 7, "from_bus": 6, "to_bus": 11, "p_from_mw": 42.02837602011605, "q_from_mvar": 30.0352721798934, "loading_percent": 0.4876573690218453, "is_violation": false}, {"line_id": 8, "from_bus": 6, "to_bus": 12, "p_from_mw": 12.811890210062154, "q_from_mvar": 5.145090580985053, "loading_percent": 0.1303350609476519, "is_violation": false}, {"line_id": 9, "from_bus": 6, "to_bus": 13, "p_from_mw": 36.246417419593705, "q_from_mvar": 21.420783937975234, "loading_percent": 0.3974594830540543, "is_violation": false}, {"line_id": 10, "from_bus": 9, "to_bus": 10, "p_from_mw": -24.501580602195347, "q_from_mvar": -12.707508448040924, "loading_percent": 0.316032056575352, "is_violation": false}, {"line_id": 11, "from_bus": 9, "to_bus": 14, "p_from_mw": -10.870666566493616, "q_from_mvar": -7.237768077704939, "loading_percent": 0.14953493764457032, "is_violation": false}, {"line_id": 12, "from_bus": 10, "to_bus": 11, "p_from_mw": -34.44912520659481, "q_from_mvar": -19.744638307126714, "loading_percent": 0.4439691055830943, "is_violation": false}, {"line_id": 13, "from_bus": 12, "to_bus": 13, "p_from_mw": 7.103618256456007, "q_from_mvar": 3.2756109694479862, "loading_percent": 0.07573727783298459, "is_violation": false}, {"line_id": 14, "from_bus": 13, "to_bus": 14, "p_from_mw": 28.432283345637003, "q_from_mvar": 16.651327445317772, "loading_percent": 0.3256641803816262, "is_violation": false}, {"line_id": 100000, "from_bus": 4, "to_bus": 7, "p_from_mw": 91.56907256817513, "q_from_mvar": 19.85877223380217, "loading_percent": 0.9864632620592182, "is_violation": false}, {"line_id": 100001, "from_bus": 4, "to_bus": 9, "p_from_mw": 50.058680260136434, "q_from_mvar": 27.40824480740185, "loading_percent": 0.6008502569448856, "is_violation": false}, {"line_id": 100002, "from_bus": 5, "to_bus": 6, "p_from_mw": 101.57431351367572, "q_from_mvar": 1.0571845241415183, "loading_percent": 1.0544386271763067, "is_violation": false}, {"line_id": 100003, "from_bus": 7, "to_bus": 8, "p_from_mw": 2.733952691528018e-14, "q_from_mvar": -71.43233972092438, "loading_percent": 0.7525753603491991, "is_violation": false}, {"line_id": 100004, "from_bus": 7, "to_bus": 9, "p_from_mw": 91.56907256553507, "q_from_mvar": 72.21431309202539, "loading_percent": 1.228630843496862, "is_violation": false}], "total_generation_mw": 426.4884843417042, "total_load_mw": 385.0118017601793, "total_loss_mw": 41.4766825823623, "voltage_violations": [{"bus_id": 1, "vm_pu": 1.06, "va_deg": 0.0, "is_violation": true, "violation_type": "overvoltage"}, {"bus_id": 6, "vm_pu": 1.0699999999999998, "va_deg": -28.412124826618438, "is_violation": true, "violation_type": "overvoltage"}, {"bus_id": 8, "vm_pu": 1.09, "va_deg": -29.02694551255074, "is_violation": true, "violation_type": "overvoltage"}, {"bus_id": 9, "vm_pu": 0.8821785547841353, "va_deg": -35.867157455943406, "is_violation": true, "violation_type": "undervoltage"}, {"bus_id": 10, "vm_pu": 0.9033828637917449, "va_deg": -34.669198220209516, "is_violation": true, "violation_type": "undervoltage"}, {"bus_id": 14, "vm_pu": 0.920309520320611, "va_deg": -34.44200855868807, "is_violation": true, "violation_type": "undervoltage"}], "thermal_violations": [], "summary_text": "", "solver_backend": "pandapower", "llm_prompt": null, "llm_response": null}
[tool modify_load]   (gate: pass)
{"case_name": "case14", "converged": true, "bus_voltages": [{"bus_id": 1, "vm_pu": 1.06, "va_deg": 0.0, "is_violation": true, "violation_type": "overvoltage"}, {"bus_id": 2, "vm_pu": 1.045, "va_deg": -31.196399825215206, "is_violation": false, "violation_type": null}, {"bus_id": 3, "vm_pu": 1.0100000000000007, "va_deg": -87.83828234878918, "is_violation": false, "violation_type": null}, {"bus_id": 4, "vm_pu": 0.8578428007764214, "va_deg": -52.10732519495639, "is_violation": true, "violation_type": "undervoltage"}, {"bus_id": 5, "vm_pu": 0.8703518478882873, "va_deg": -43.516469815908955, "is_violation": true, "violation_type": "undervoltage"}, {"bus_id": 6, "vm_pu": 1.0699999999999998, "va_deg": -61.45479633441752, "is_violation": true, "violation_type": "overvoltage"}, {"bus_id": 7, "vm_pu": 0.9030262088418569, "va_deg": -64.72926392110833, "is_violation": true, "violation_type": "undervoltage"}, {"bus_id": 8, "vm_pu": 1.09, "va_deg": -64.72926392110833, "is_violation": true, "violation_type": "overvoltage"}, {"bus_id": 9, "vm_pu": 0.8172693685467013, "va_deg": -71.8161566339919, "is_violation": true, "violation_type": "undervoltage"}, {"bus_id": 10, "vm_pu": 0.8476381188704843, "va_deg": -69.91172559236934, "is_violation": true, "violation_type": "undervoltage"}, {"bus_id": 11, "vm_pu": 0.9480169690801592, "va_deg": -65.34517421081962, "is_violation": true, "violation_type": "undervoltage"}, {"bus_id": 12, "vm_pu": 1.0383126927052506, "va_deg": -62.99550454113128, "is_violation": false, "violation_type": null}, {"bus_id": 13, "vm_pu": 1.0110010790908373, "va_deg": -63.45024265659059, "is_violation": false, "violation_type": null}, {"bus_id": 14, "vm_pu": 0.8763977174999182, "va_deg": -69.12273687725879, "is_violation": true, "violation_type": "undervoltage"}], "line_flows": [{"line_id": 0, "from_bus": 1, "to_bus": 2, "p_from_mw": 963.7564854341081, "q_from_mvar": -21.048189782926226, "loading_percent": 9.18607110268204, "is_violation": false}, {"line_id": 1, "from_bus": 1, "to_bus": 5, "p_from_mw": 315.6615983817067, "q_from_mvar": 124.57625748112271, "loading_percent": 3.2356770846017526, "is_violation": false}, {"line_id": 2, "from_bus": 2, "to_bus": 3, "p_from_mw": 479.62703824752026, "q_from_mvar": 142.22008095665487, "loading_percent": 4.8356152444329865, "is_violation": false}, {"line_id": 3, "from_bus": 2, "to_bus": 4, "p_from_mw": 206.61446439345994, "q_from_mvar": 74.45862154122818, "loading_percent": 2.1289076947417747, "is_violation": false}, {"line_id": 4, "from_bus": 2, "to_bus": 5, "p_from_mw": 135.40670571860528, "q_from_mvar": 70.76928558213936, "loading_percent": 1.4896105900290606, "is_violation": false}, {"line_id": 5, "from_bus": 3, "to_bus": 4, "p_from_mw": -193.55911013567754, "q_from_mvar": 260.3953900629161, "loading_percent": 3.25180611934228, "is_violation": false}, {"line_id": 6, "from_bus": 4, "to_bus": 5, "p_from_mw": -242.2737324949714, "q_from_mvar": 71.21753783108737, "loading_percent": 2.9734469345265038, "is_violation": false}, {"line_id": 7, "from_bus": 6, "to_bus": 11, "p_from_mw": 54.15112714173313, "q_from_mvar": 40.93843499082163, "loading_percent": 0.6408426403210049, "is_violation": false}, {"line_id": 8, "from_bus": 6, "to_bus": 12, "p_from_mw": 14.722235511653272, "q_from_mvar": 6.337505337341744, "loading_percent": 0.15131082681524116, "is_violation": false}, {"line_id": 9, "from_bus": 6, "to_bus": 13, "p_from_mw": 42.753916830394616, "q_from_mvar": 27.253487417466605, "loading_percent": 0.47863284900333225, "is_violation": false}, {"line_id": 10, "from_bus": 9, "to_bus": 10, "p_from_mw": -33.39831597898444, "q_from_mvar": -16.346514280214922, "loading_percent": 0.4595752806860366, "is_violation": false}, {"line_id": 11, "from_bus": 9, "to_bus": 14, "p_from_mw": -16.963826657313593, "q_from_mvar": -9.604929425682801, "loading_percent": 0.2409385469955458, "is_violation": false}, {"line_id": 12, "from_bus": 10, "to_bus": 11, "p_from_mw": -43.69296381978005, "q_from_mvar": -24.305688261890463, "loading_percent": 0.5958138154085738, "is_violation": false}, {"line_id": 13, "from_bus": 12, "to_bus": 13, "p_from_mw": 8.942796526840256, "q_from_mvar": 4.319907279363097, "loading_percent": 0.09661679484005109, "is_violation": false}, {"line_id": 14, "from_bus": 13, "to_bus": 14, "p_from_mw": 36.23997469034029, "q_from_mvar": 22.54984434891695, "loading_percent": 0.42644915617713147, "is_violation": false}, {"line_id": 100000, "from_bus": 4, "to_bus": 7, "p_from_mw": 82.76728044316579, "q_from_mvar": -1.7042163757189859, "loading_percent": 0.9747827241776382, "is_violation": false}, {"line_id": 100001, "from_bus": 4, "to_bus": 9, "p_from_mw": 43.87057692027252, "q_from_mvar": 18.44717993123353, "loading_percent": 0.5603819006893014, "is_violation": false}, {"line_id": 100002, "from_bus": 5, "to_bus": 6, "p_from_mw": 122.11490934775458, "q_from_mvar": -31.17486138616107, "loading_percent": 1.4626783633241582, "is_violation": false}, {"line_id": 100003, "from_bus": 7, "to_bus": 8, "p_from_mw": -5.972060786135765e-14, "q_from_mvar": -95.8513958457717, "loading_percent": 1.0721681255251514, "is_violation": false}, {"line_id": 100004, "from_bus": 7, "to_bus": 9, "p_from_mw": 82.76728044319493, "q_from_mvar": 75.5194759783473, "loading_percent": 1.2532820944952607, "is_violation": false}], "total_generation_mw": 1318.704560793091, "total_load_mw": 862.600901107354, "total_loss_mw": 456.1036596874395, "voltage_violations": [{"bus_id": 1, "vm_pu": 1.06, "va_deg": 0.0, "is_violation": true, "violation_type": "overvoltage"}, {"bus_id": 4, "vm_pu": 0.8578428007764214, "va_deg": -52.10732519495639, "is_violation": true, "violation_type": "undervoltage"}, {"bus_id": 5, "vm_pu": 0.8703518478882873, "va_deg": -43.516469815908955, "is_violation": true, "violation_type": "undervoltage"}, {"bus_id": 6, "vm_pu": 1.0699999999999998, "va_deg": -61.45479633441752, "is_violation": true, "violation_type": "overvoltage"}, {"bus_id": 7, "vm_pu": 0.9030262088418569, "va_deg": -64.72926392110833, "is_violation": true, "violation_type": "undervoltage"}, {"bus_id": 8, "vm_pu": 1.09, "va_deg": -64.72926392110833, "is_violation": true, "violation_type": "overvoltage"}, {"bus_id": 9, "vm_pu": 0.8172693685467013, "va_deg": -71.8161566339919, "is_violation": true, "violation_type": "undervoltage"}, {"bus_id": 10, "vm_pu": 0.8476381188704843, "va_deg": -69.91172559236934, "is_violation": true, "violation_type": "undervoltage"}, {"bus_id": 11, "vm_pu": 0.9480169690801592, "va_deg": -65.34517421081962, "is_violation": true, "violation_type": "undervoltage"}, {"bus_id": 14, "vm_pu": 0.8763977174999182, "va_deg": -69.12273687725879, "is_violation": true, "violation_type": "undervoltage"}], "thermal_violations": [], "summary_text": "", "solver_backend": "pandapower", "llm_prompt": null, "llm_response": null}
[tool modify_load]   (gate: pass)
{"case_name": "case14", "converged": true, "bus_voltages": [{"bus_id": 1, "vm_pu": 1.06, "va_deg": 0.0, "is_violation": true, "violation_type": "overvoltage"}, {"bus_id": 2, "vm_pu": 1.045, "va_deg": -36.46935680125155, "is_violation": false, "violation_type": null}, {"bus_id": 3, "vm_pu": 1.0099999999999996, "va_deg": -93.45459632496475, "is_violation": false, "violation_type": null}, {"bus_id": 4, "vm_pu": 0.848370849612593, "va_deg": -56.96468927634907, "is_violation": true, "violation_type": "undervoltage"}, {"bus_id": 5, "vm_pu": 0.8574005215041232, "va_deg": -47.903561449962744, "is_violation": true, "violation_type": "undervoltage"}, {"bus_id": 6, "vm_pu": 1.07, "va_deg": -66.3353310861715, "is_violation": true, "violation_type": "overvoltage"}, {"bus_id": 7, "vm_pu": 0.8977635521759391, "va_deg": -69.7315087372626, "is_violation": true, "violation_type": "undervoltage"}, {"bus_id": 8, "vm_pu": 1.09, "va_deg": -69.7315087372626, "is_violation": true, "violation_type": "overvoltage"}, {"bus_id": 9, "vm_pu": 0.8112253655861736, "va_deg": -76.87235704537441, "is_violation": true, "violation_type": "undervoltage"}, {"bus_id": 10, "vm_pu": 0.8424879476359873, "va_deg": -74.91818207238698, "is_violation": true, "violation_type": "undervoltage"}, {"bus_id": 11, "vm_pu": 0.9452763765723166, "va_deg": -70.26740103637985, "is_violation": true, "violation_type": "undervoltage"}, {"bus_id": 12, "vm_pu": 1.03784801643977, "va_deg": -67.88672681192905, "is_violation": false, "violation_type": null}, {"bus_id": 13, "vm_pu": 1.0100174562424813, "va_deg": -68.34238330180408, "is_violation": false, "violation_type": null}, {"bus_id": 14, "vm_pu": 0.8723571238934, "va_deg": -74.09656892537966, "is_violation": true, "violation_type": "undervoltage"}], "line_flows": [{"line_id": 0, "from_bus": 1, "to_bus": 2, "p_from_mw": 1121.3227023126028, "q_from_mvar": 23.23473548612427, "loading_percent": 10.687663407327792, "is_violation": false}, {"line_id": 1, "from_bus": 1, "to_bus": 5, "p_from_mw": 338.3630390148766, "q_from_mvar": 145.8688290748003, "loading_percent": 3.5130416246542255, "is_violation": false}, {"line_id": 2, "from_bus": 2, "to_bus": 3, "p_from_mw": 481.8833643043087, "q_from_mvar": 144.35833588901488, "loading_percent": 4.862419934011574, "is_violation": false}, {"line_id": 3, "from_bus": 2, "to_bus": 4, "p_from_mw": 202.90546648083966, "q_from_mvar": 79.63568576787677, "loading_percent": 2.113965307604767, "is_violation": false}, {"line_id": 4, "from_bus": 2, "to_bus": 5, "p_from_mw": 128.63004712041902, "q_from_mvar": 78.9534624153643, "loading_percent": 1.4738798118199192, "is_violation": false}, {"line_id": 5, "from_bus": 3, "to_bus": 4, "p_from_mw": -192.5043950423477, "q_from_mvar": 268.43385091275405, "loading_percent": 3.3105820561581236, "is_violation": false}, {"line_id": 6, "from_bus": 4, "to_bus": 5, "p_from_mw": -246.22579169141346, "q_from_mvar": 81.42451643709555, "loading_percent": 3.0877925278615774, "is_violation": false}, {"line_id": 7, "from_bus": 6, "to_bus": 11, "p_from_mw": 54.95208378824438, "q_from_mvar": 42.0521256426399, "loading_percent": 0.6532256256873836, "is_violation": false}, {"line_id": 8, "from_bus": 6, "to_bus": 12, "p_from_mw": 14.860450966493033, "q_from_mvar": 6.467575335445322, "loading_percent": 0.1529960055421356, "is_violation": false}, {"line_id": 9, "from_bus": 6, "to_bus": 13, "p_from_mw": 43.19339279438659, "q_from_mvar": 27.843622939939962, "loading_percent": 0.48513209666484314, "is_violation": false}, {"line_id": 10, "from_bus": 9, "to_bus": 10, "p_from_mw": -33.89814787676544, "q_from_mvar": -16.781679524002175, "loading_percent": 0.47097620729679207, "is_violation": false}, {"line_id": 11, "from_bus": 9, "to_bus": 14, "p_from_mw": -17.324563601005902, "q_from_mvar": -9.889805060291113, "loading_percent": 0.24839157140701124, "is_violation": false}, {"line_id": 12, "from_bus": 10, "to_bus": 11, "p_from_mw": -44.22587184209016, "q_from_mvar": -24.828716835024807, "loading_percent": 0.6080926602844627, "is_violation": false}, {"line_id": 13, "from_bus": 12, "to_bus": 13, "p_from_mw": 9.074834445761049, "q_from_mvar": 4.43712010178001, "loading_percent": 0.09831452032780769, "is_violation": false}, {"line_id": 14, "from_bus": 13, "to_bus": 14, "p_from_mw": 36.763712804536496, "q_from_mvar": 23.17073546670794, "loading_percent": 0.4345993579634974, "is_violation": false}, {"line_id": 100000, "from_bus": 4, "to_bus": 7, "p_from_mw": 82.29502960857073, "q_from_mvar": -3.365672083602087, "loading_percent": 0.980653481112837, "is_violation": false}, {"line_id": 100001, "from_bus": 4, "to_bus": 9, "p_from_mw": 43.482258911457365, "q_from_mvar": 17.750621877853956, "loading_percent": 0.5591924371285507, "is_violation": false}, {"line_id": 100002, "from_bus": 5, "to_bus": 6, "p_from_mw": 123.49355741160326, "q_from_mvar": -34.73377100909454, "loading_percent": 1.5113241817862242, "is_violation": false}, {"line_id": 100003, "from_bus": 7, "to_bus": 8, "p_from_mw": 3.862713823501046e-14, "q_from_mvar": -97.97495103957628, "loading_percent": 1.1023458990934667, "is_violation": false}, {"line_id": 100004, "from_bus": 7, "to_bus": 9, "p_from_mw": 82.29502960887659, "q_from_mvar": 75.75652421876217, "loading_percent": 1.258513627469751, "is_violation": false}], "total_generation_mw": 1498.9722183047556, "total_load_mw": 971.667763068302, "total_loss_mw": 527.3044552550707, "voltage_violations": [{"bus_id": 1, "vm_pu": 1.06, "va_deg": 0.0, "is_violation": true, "violation_type": "overvoltage"}, {"bus_id": 4, "vm_pu": 0.848370849612593, "va_deg": -56.96468927634907, "is_violation": true, "violation_type": "undervoltage"}, {"bus_id": 5, "vm_pu": 0.8574005215041232, "va_deg": -47.903561449962744, "is_violation": true, "violation_type": "undervoltage"}, {"bus_id": 6, "vm_pu": 1.07, "va_deg": -66.3353310861715, "is_violation": true, "violation_type": "overvoltage"}, {"bus_id": 7, "vm_pu": 0.8977635521759391, "va_deg": -69.7315087372626, "is_violation": true, "violation_type": "undervoltage"}, {"bus_id": 8, "vm_pu": 1.09, "va_deg": -69.7315087372626, "is_violation": true, "violation_type": "overvoltage"}, {"bus_id": 9, "vm_pu": 0.8112253655861736, "va_deg": -76.87235704537441, "is_violation": true, "violation_type": "undervoltage"}, {"bus_id": 10, "vm_pu": 0.8424879476359873, "va_deg": -74.91818207238698, "is_violation": true, "violation_type": "undervoltage"}, {"bus_id": 11, "vm_pu": 0.9452763765723166, "va_deg": -70.26740103637985, "is_violation": true, "violation_type": "undervoltage"}, {"bus_id": 14, "vm_pu": 0.8723571238934, "va_deg": -74.09656892537966, "is_violation": true, "violation_type": "undervoltage"}], "thermal_violations": [], "summary_text": "", "solver_backend": "pandapower", "llm_prompt": null, "llm_response": null}
[tool modify_load]   (gate: FAIL, not enforced)
{"case_name": "case14", "converged": false, "bus_voltages": [], "line_flows": [], "total_generation_mw": 0.0, "total_load_mw": 0.0, "total_loss_mw": 0.0, "voltage_violations": [], "thermal_violations": [], "summary_text": "Power flow failed: LoadflowNotConverged: Power Flow nr did not converge after 10 iterations!", "solver_backend": "pandapower", "llm_prompt": null, "llm_response": null}

--- round 2 ---
[assistant]   (11938 in / 131 out tokens, 2.2 s)
The power flow analysis did not converge after the modifications to the loads, indicating that the system is likely overloaded or unstable under the new conditions.

Key numbers:
- Total load: 0 MW (due to non-convergence)
- Total generation: 0 MW (due to non-convergence)
- Total losses: 0 MW (due to non-convergence)
- Voltage range: Not applicable (due to non-convergence)

Violations: The power flow did not converge, so no specific violations can be reported.

Suggested next step: Consider reducing the loads or modifying the generation capacity to achieve convergence, and then rerun the power flow analysis.

--- round 2 ---
[assistant]   (12213 in / 11 out tokens, 0.8 s)
(no text)
tool_call  run_powerflow()
[tool run_powerflow]   (gate: FAIL, not enforced)
{"case_name": "case14", "converged": false, "bus_voltages": [], "line_flows": [], "total_generation_mw": 0.0, "total_load_mw": 0.0, "total_loss_mw": 0.0, "voltage_violations": [], "thermal_violations": [], "summary_text": "Power flow failed: LoadflowNotConverged: Power Flow nr did not converge after 10 iterations!", "solver_backend": "pandapower", "llm_prompt": null, "llm_response": null}

--- round 3 ---
[assistant]   (12359 in / 135 out tokens, 1.7 s)
The power flow analysis still did not converge after the modifications to the loads, confirming that the system is unstable under the current conditions.

Key numbers:
- Total load: 0 MW (due to non-convergence)
- Total generation: 0 MW (due to non-convergence)
- Total losses: 0 MW (due to non-convergence)
- Voltage range: Not applicable (due to non-convergence)

Violations: The power flow did not converge, so no specific violations can be reported.

Suggested next step: It is recommended to reduce the loads at the buses or adjust the generation capacity to achieve convergence, and then rerun the power flow analysis.

[final answer]
No numerical result is reported. Verification failed: the last power flow did not converge after setting the load at bus 14 to 89.4 MW. This is a declared failure of the verification step, not a claim that the network failed to converge.

[verification gate]   outcome: abstained after 2 attempt(s)
attempt 1: FAIL
      converged              FAIL  residual 1
      balance                pass  residual 0
      no_isolated_buses      pass  residual 0
      faithfulness           pass  residual 0
      currency               pass  residual 0
attempt 2: FAIL
      converged              FAIL  residual 1
      balance                pass  residual 0
      no_isolated_buses      pass  residual 0
      faithfulness           pass  residual 0
      currency               pass  residual 0
[retry message to the model]
Verification failed before this answer could be accepted. Failed condition(s):
- the last power flow did not converge after setting the load at bus 14 to 89.4 MW
Produce a corrected final answer. You may call tools again if needed, but only to inspect the current state (e.g. re-running the power flow) -- do not undo or reverse a network change the request asked for (do not reconnect a line it asked you to disconnect, do not revert a load value it asked you to set) just to reach a state that passes verification. If the requested state genuinely fails, report that failure. Do not change a number without a tool call to support it.

[status] verification_failed
